; Filename: ./data/INPfiles/BKTown_netwerk_final_EPANET_export_v2.0_v1.0.inp
; WNTR: 0.3.0
; Created: 2021-08-06 17:08:20
[TITLE]

[JUNCTIONS]
;ID                      Elevation       Demand Pattern                 
 936852                     60.389999  0.019562936635 Demand_K           ;
 382061                     58.580002   0.03912587327 Demand_K           ;
 399019                         51.41   0.13693903261 Demand_K           ;
 1816766                    65.620003   0.03912587327 Demand_K           ;
 1251100                    40.810001               0                            ;
 1249977                        40.57  0.014731455583 Demand_B_N           ;
 1618029                    60.700001               0                            ;
 401732                         44.82               0                            ;
 366712                     46.639999               0                            ;
 938687                     50.950001               0                            ;
 366092                     42.130001  0.019562936635 Demand_K           ;
 818837                     48.970001  0.019562936635 Demand_K           ;
 2721275                    55.709999               0                            ;
 3082931                        53.75               0                            ;
 2908512                    69.269997   0.02946424893 Demand_B_Z            ;
 2908539                    69.849998   0.02946424893 Demand_B_Z            ;
 2288262                        50.34               0                            ;
 2790706                         53.5  0.014731455583 Demand_B_Z            ;
 2379344                    56.540001               0                            ;
 2288449                         55.5  0.014731455583 Demand_B_Z            ;
 2900106                        64.75  0.014731455583 Demand_B_Z            ;
 2915030                    66.529999               0                            ;
 2652926                    42.919998   0.02946424893 Demand_B_N           ;
 2903185                        41.73   0.42723227837 Demand_B_N           ;
 2933985                    42.779999  0.014731455583 Demand_B_N           ;
 2904467                        53.27  0.019562936635 Demand_K           ;
 1247972FR                      42.09  0.014731455583 Demand_B_N           ;
 1247972TO                      42.09               0                            ;
 1247651FR                  42.200001               0                            ;
 1247651TO                  42.200001               0                            ;
 1247899FR                  42.080002               0                            ;
 1247899TO                  42.080002               0                            ;
 1239421FR                  41.830002    0.1325884513 Demand_B_N           ;
 1239421TO                  41.830002               0                            ;
 1983346FR                      43.09               0                            ;
 1983346TO                      43.09  0.014731455583 Demand_B_N           ;
 1249054FR                  41.810001               0                            ;
 1249054TO                  41.810001  0.014731455583 Demand_B_N           ;
 1248912FR                  41.990002               0                            ;
 1248912TO                  41.990002               0                            ;
 1926833FR                  42.330002   0.08839274679 Demand_B_N           ;
 1926833TO                  42.330002  0.014731455583 Demand_B_N           ;
 1239334FR                  45.150002               0                            ;
 1239334TO                  45.150002               0                            ;
 1239183FR                  45.459999               0                            ;
 1239183TO                  45.459999               0                            ;
 1239244FR                  45.439999               0                            ;
 1239244TO                  45.439999               0                            ;
 1241065FR                      44.41               0                            ;
 1241065TO                      44.41   0.05892849786 Demand_B_N           ;
 1249441FR                  43.709999               0                            ;
 1249441TO                  43.709999               0                            ;
 1249490FR                  44.209999               0                            ;
 1249490TO                  44.209999               0                            ;
 1249503FR                  44.029999               0                            ;
 1249503TO                  44.029999               0                            ;
 1240653FR                      39.77               0                            ;
 1240653TO                      39.77               0                            ;
 1240559FR                  39.779999               0                            ;
 1240559TO                  39.779999    0.1325884513 Demand_B_N           ;
 1240641FR                  39.630001   0.02946424893 Demand_B_N           ;
 1240641TO                  39.630001               0                            ;
 1240369FR                  39.599998  0.014731455583 Demand_B_N           ;
 1240369TO                  39.599998               0                            ;
 1251005FR                  39.759998               0                            ;
 1251005TO                  39.759998               0                            ;
 1239837FR                  41.110001               0                            ;
 1239837TO                  41.110001               0                            ;
 1239699FR                  41.139999               0                            ;
 1239699TO                  41.139999               0                            ;
 1987669FR                  40.200001               0                            ;
 1987669TO                  40.200001               0                            ;
 1987667FR                  40.189999               0                            ;
 1987667TO                  40.189999               0                            ;
 1987726FR                      40.52               0                            ;
 1987726TO                      40.52               0                            ;
 1987728FR                  40.380001               0                            ;
 1987728TO                  40.380001               0                            ;
 1987721FR                  40.400002               0                            ;
 1987721TO                  40.400002               0                            ;
 1987723FR                  40.419998               0                            ;
 1987723TO                  40.419998  0.014731455583 Demand_B_N           ;
 1987731FR                  40.509998  0.073659953443 Demand_B_N           ;
 1987731TO                  40.509998               0                            ;
 1251060FR                  40.790001   0.08839274679 Demand_B_N           ;
 1251060TO                  40.790001               0                            ;
 1987739FR                  41.650002               0                            ;
 1987739TO                  41.650002    0.1325884513 Demand_B_N           ;
 1247168FR                  41.099998               0                            ;
 1247168TO                  41.099998               0                            ;
 2288182FR                  41.279999               0                            ;
 2288182TO                  41.279999               0                            ;
 1247289FR                      41.32               0                            ;
 1247289TO                      41.32               0                            ;
 2288212FR                      41.09               0                            ;
 2288212TO                      41.09               0                            ;
 2288148FR                       40.5               0                            ;
 2288148TO                       40.5               0                            ;
 1285058FR                  41.240002               0                            ;
 1285058TO                  41.240002               0                            ;
 1247739FR                  42.360001  0.014731455583 Demand_B_N           ;
 1247739TO                  42.360001   0.08839274679 Demand_B_N           ;
 1247821FR                  41.459999               0                            ;
 1247821TO                  41.459999   0.05892849786 Demand_B_N           ;
 1247814FR                  41.459999               0                            ;
 1247814TO                  41.459999   0.05892849786 Demand_B_N           ;
 1247696FR                  42.630001    0.1325884513 Demand_B_N           ;
 1247696TO                  42.630001               0                            ;
 1247670FR                  42.619999   0.05892849786 Demand_B_N           ;
 1247670TO                  42.619999               0                            ;
 1373916FR                      60.43               0                            ;
 1373916TO                      60.43               0                            ;
 1373923FR                  59.439999               0                            ;
 1373923TO                  59.439999               0                            ;
 1658143FR                  58.080002  0.014731455583 Demand_B_Z            ;
 1658143TO                  58.080002               0                            ;
 1658140FR                  58.130001               0                            ;
 1658140TO                  58.130001               0                            ;
 1374263FR                  56.259998  0.014731455583 Demand_B_Z            ;
 1374263TO                  56.259998               0                            ;
 401708FR                   57.619999               0                            ;
 401708TO                   57.619999  0.044195704513 Demand_B_Z            ;
 2179254FR                  51.900002               0                            ;
 2179254TO                  51.900002               0                            ;
 2179252FR                      51.91               0                            ;
 2179252TO                      51.91               0                            ;
 2179246FR                  52.220001               0                            ;
 2179246TO                  52.220001               0                            ;
 2179244FR                      52.25               0                            ;
 2179244TO                      52.25               0                            ;
 1658161FR                  54.490002               0                            ;
 1658161TO                  54.490002               0                            ;
 1658159FR                  54.490002               0                            ;
 1658159TO                  54.490002               0                            ;
 1658174FR                  54.290001               0                            ;
 1658174TO                  54.290001  0.014731455583 Demand_B_Z            ;
 1631107FR                  50.549999               0                            ;
 1631107TO                  50.549999               0                            ;
 1631119FR                  50.700001   0.02946424893 Demand_B_Z            ;
 1631119TO                  50.700001               0                            ;
 1619676FR                  49.470001               0                            ;
 1619676TO                  49.470001               0                            ;
 1619844FR                      49.48               0                            ;
 1619844TO                      49.48               0                            ;
 1620360FR                      50.32  0.014731455583 Demand_B_Z            ;
 1620360TO                      50.32               0                            ;
 1620531FR                       51.5   0.05892849786 Demand_B_Z            ;
 1620531TO                       51.5               0                            ;
 1620560FR                       51.5   0.05892849786 Demand_B_Z            ;
 1620560TO                       51.5               0                            ;
 1620757FR                  51.099998  0.014731455583 Demand_B_Z            ;
 1620757TO                  51.099998               0                            ;
 1620751FR                      51.09               0                            ;
 1620751TO                      51.09   0.05892849786 Demand_B_Z            ;
 1631145FR                  51.080002               0                            ;
 1631145TO                  51.080002   0.10312420237 Demand_B_Z            ;
 1620781FR                  51.029999  0.044195704513 Demand_B_Z            ;
 1620781TO                  51.029999               0                            ;
 1620518FR                      51.09               0                            ;
 1620518TO                      51.09  0.014731455583 Demand_B_Z            ;
 1620376FR                  48.630001               0                            ;
 1620376TO                  48.630001               0                            ;
 1619864FR                      49.02               0                            ;
 1619864TO                      49.02   0.02946424893 Demand_B_Z            ;
 1620792FR                  49.310001               0                            ;
 1620792TO                  49.310001   0.02946424893 Demand_B_Z            ;
 1620795FR                      49.25               0                            ;
 1620795TO                      49.25               0                            ;
 1620404FR                  49.169998               0                            ;
 1620404TO                  49.169998   0.05892849786 Demand_B_Z            ;
 1620427FR                      49.43               0                            ;
 1620427TO                      49.43  0.014731455583 Demand_B_Z            ;
 1620511FR                      49.41  0.014731455583 Demand_B_Z            ;
 1620511TO                      49.41               0                            ;
 1631225FR                      49.57               0                            ;
 1631225TO                      49.57               0                            ;
 1631219FR                      49.75               0                            ;
 1631219TO                      49.75               0                            ;
 1164848FR                      57.34   0.02946424893 Demand_B_Z            ;
 1164848TO                      57.34               0                            ;
 1170033FR                  57.110001               0                            ;
 1170033TO                  57.110001    0.2946424893 Demand_B_Z            ;
 1170700FR                  61.150002   0.05892849786 Demand_B_Z            ;
 1170700TO                  61.150002               0                            ;
 1170750FR                  61.169998               0                            ;
 1170750TO                  61.169998               0                            ;
 1170733FR                  61.240002   0.02946424893 Demand_B_Z            ;
 1170733TO                  61.240002               0                            ;
 1164410FR                  67.220001   0.02946424893 Demand_B_Z            ;
 1164410TO                  67.220001               0                            ;
 401595FR                       60.16               0                            ;
 401595TO                       60.16               0                            ;
 401619FR                   45.529999               0                            ;
 401619TO                   45.529999               0                            ;
 401599FR                   45.549999               0                            ;
 401599TO                   45.549999               0                            ;
 401597FR                   45.560001               0                            ;
 401597TO                   45.560001               0                            ;
 401612FR                   45.509998               0                            ;
 401612TO                   45.509998               0                            ;
 401626FR                   45.150002               0                            ;
 401626TO                   45.150002               0                            ;
 1154789FR                  46.400002  0.044195704513 Demand_B_Z            ;
 1154789TO                  46.400002               0                            ;
 1154777FR                  46.189999               0                            ;
 1154777TO                  46.189999               0                            ;
 402666FR                   46.639999               0                            ;
 402666TO                   46.639999               0                            ;
 402668FR                   46.400002               0                            ;
 402668TO                   46.400002               0                            ;
 401635FR                       45.91               0                            ;
 401635TO                       45.91               0                            ;
 401632FR                       46.09               0                            ;
 401632TO                       46.09               0                            ;
 1375410FR                  45.889999  0.073659953443 Demand_B_Z            ;
 1375410TO                  45.889999               0                            ;
 2179209FR                      44.73               0                            ;
 2179209TO                      44.73               0                            ;
 2179191FR                  44.709999               0                            ;
 2179191TO                  44.709999               0                            ;
 1162175FR                      51.02               0                            ;
 1162175TO                      51.02  0.044195704513 Demand_B_Z            ;
 1620264FR                  49.560001               0                            ;
 1620264TO                  49.560001               0                            ;
 1162169FR                  51.040001   0.05892849786 Demand_B_Z            ;
 1162169TO                  51.040001               0                            ;
 1161565FR                      50.27               0                            ;
 1161565TO                      50.27               0                            ;
 1162182FR                      50.32               0                            ;
 1162182TO                      50.32  0.044195704513 Demand_B_Z            ;
 1161060FR                      52.59               0                            ;
 1161060TO                      52.59               0                            ;
 1162195FR                  50.349998   0.05892849786 Demand_B_Z            ;
 1162195TO                  50.349998               0                            ;
 1162240FR                  51.099998   0.05892849786 Demand_B_Z            ;
 1162240TO                  51.099998               0                            ;
 1162054FR                      51.07               0                            ;
 1162054TO                      51.07               0                            ;
 1162245FR                  51.060001               0                            ;
 1162245TO                  51.060001   0.05892849786 Demand_B_Z            ;
 1162762FR                  50.830002               0                            ;
 1162762TO                  50.830002   0.02946424893 Demand_B_Z            ;
 1162687FR                  50.290001  0.014731455583 Demand_B_Z            ;
 1162687TO                  50.290001               0                            ;
 1162756FR                  50.709999  0.044195704513 Demand_B_Z            ;
 1162756TO                  50.709999               0                            ;
 1162682FR                  50.209999               0                            ;
 1162682TO                  50.209999   0.05892849786 Demand_B_Z            ;
 1161999FR                      50.18               0                            ;
 1161999TO                      50.18               0                            ;
 1161980FR                  49.509998   0.10312420237 Demand_B_Z            ;
 1161980TO                  49.509998               0                            ;
 1161965FR                  49.490002               0                            ;
 1161965TO                  49.490002               0                            ;
 1162451FR                  49.470001               0                            ;
 1162451TO                  49.470001               0                            ;
 1783893FR                  49.509998               0                            ;
 1783893TO                  49.509998  0.014731455583 Demand_B_Z            ;
 1162795FR                  49.880001   0.02946424893 Demand_B_Z            ;
 1162795TO                  49.880001               0                            ;
 1162626FR                  49.459999               0                            ;
 1162626TO                  49.459999   0.02946424893 Demand_B_Z            ;
 1155184FR                  50.299999  0.014731455583 Demand_B_Z            ;
 1155184TO                  50.299999               0                            ;
 1155245FR                      50.43   0.02946424893 Demand_B_Z            ;
 1155245TO                      50.43               0                            ;
 1155240FR                  50.470001               0                            ;
 1155240TO                  50.470001               0                            ;
 1162638FR                  49.299999   0.02946424893 Demand_B_Z            ;
 1162638TO                  49.299999               0                            ;
 1155203FR                  49.200001               0                            ;
 1155203TO                  49.200001               0                            ;
 1155193FR                  49.209999               0                            ;
 1155193TO                  49.209999               0                            ;
 1154701FR                  48.560001               0                            ;
 1154701TO                  48.560001   0.05892849786 Demand_B_Z            ;
 1154981FR                  49.310001               0                            ;
 1154981TO                  49.310001               0                            ;
 1155220FR                  49.389999  0.014731455583 Demand_B_Z            ;
 1155220TO                  49.389999               0                            ;
 1154697FR                  48.439999  0.073659953443 Demand_B_Z            ;
 1154697TO                  48.439999  0.014731455583 Demand_B_Z            ;
 1625586FR                  59.169998               0                            ;
 1625586TO                  59.169998               0                            ;
 1625566FR                      59.25               0                            ;
 1625566TO                      59.25               0                            ;
 1172953FR                  52.880001               0                            ;
 1172953TO                  52.880001  0.044195704513 Demand_B_Z            ;
 1193086FR                      54.68               0                            ;
 1193086TO                      54.68               0                            ;
 1163197FR                  54.099998               0                            ;
 1163197TO                  54.099998   0.08839274679 Demand_B_Z            ;
 1163206FR                  54.139999               0                            ;
 1163206TO                  54.139999               0                            ;
 1162967FR                  52.549999   0.10312420237 Demand_B_Z            ;
 1162967TO                  52.549999               0                            ;
 1162066FR                  51.900002               0                            ;
 1162066TO                  51.900002               0                            ;
 1161011FR                  51.830002               0                            ;
 1161011TO                  51.830002               0                            ;
 1162482FR                      51.98               0                            ;
 1162482TO                      51.98               0                            ;
 2288231FR                      52.68  0.014731455583 Demand_B_Z            ;
 2288231TO                      52.68               0                            ;
 2925108FR                  51.450001  0.073659953443 Demand_B_Z            ;
 2925108TO                  51.450001               0                            ;
 1162830FR                      52.52   0.08839274679 Demand_B_Z            ;
 1162830TO                      52.52               0                            ;
 1160954FR                  52.610001               0                            ;
 1160954TO                  52.610001  0.044195704513 Demand_B_Z            ;
 1375356FR                  52.049999               0                            ;
 1375356TO                  52.049999               0                            ;
 401754FR                   51.959999               0                            ;
 401754TO                   51.959999   0.20624974251 Demand_B_Z            ;
 1160771FR                  50.540001               0                            ;
 1160771TO                  50.540001  0.073659953443 Demand_B_Z            ;
 1160756FR                      50.48               0                            ;
 1160756TO                      50.48               0                            ;
 1160795FR                  50.860001  0.044195704513 Demand_B_Z            ;
 1160795TO                  50.860001               0                            ;
 1160811FR                  50.869999               0                            ;
 1160811TO                  50.869999               0                            ;
 1160764FR                       50.5   0.08839274679 Demand_B_Z            ;
 1160764TO                       50.5               0                            ;
 1658202FR                  51.099998               0                            ;
 1658202TO                  51.099998   0.05892849786 Demand_B_Z            ;
 1375582FR                  49.279999   0.02946424893 Demand_B_Z            ;
 1375582TO                  49.279999               0                            ;
 2379201FR                  48.790001               0                            ;
 2379201TO                  48.790001               0                            ;
 1154843FR                  48.400002               0                            ;
 1154843TO                  48.400002               0                            ;
 1375525FR                  50.349998               0                            ;
 1375525TO                  50.349998  0.014731455583 Demand_B_Z            ;
 401649FR                       49.82               0                            ;
 401649TO                       49.82               0                            ;
 1375714FR                  50.290001  0.014731455583 Demand_B_Z            ;
 1375714TO                  50.290001               0                            ;
 401652FR                   50.080002               0                            ;
 401652TO                   50.080002               0                            ;
 1375609FR                  48.790001  0.014731455583 Demand_B_Z            ;
 1375609TO                  48.790001               0                            ;
 1374710FR                  50.169998               0                            ;
 1374710TO                  50.169998               0                            ;
 1374503FR                  50.060001               0                            ;
 1374503TO                  50.060001               0                            ;
 1374684FR                  50.099998               0                            ;
 1374684TO                  50.099998  0.014731455583 Demand_B_Z            ;
 1374447FR                  49.849998  0.073659953443 Demand_B_Z            ;
 1374447TO                  49.849998               0                            ;
 2018664FR                  59.990002   0.02946424893 Demand_B_Z            ;
 2018664TO                  59.990002               0                            ;
 2018598FR                      59.77               0                            ;
 2018598TO                      59.77               0                            ;
 2018628FR                      59.82               0                            ;
 2018628TO                      59.82               0                            ;
 2018630FR                  59.700001               0                            ;
 2018630TO                  59.700001               0                            ;
 2018585FR                  59.599998  0.044195704513 Demand_B_Z            ;
 2018585TO                  59.599998               0                            ;
 1163011FR                  56.669998               0                            ;
 1163011TO                  56.669998  0.044195704513 Demand_B_Z            ;
 1628092FR                  49.799999               0                            ;
 1628092TO                  49.799999               0                            ;
 1374392FR                  47.360001               0                            ;